[General]
output-vector-file = "${resultdir}/${runnumber}-${repetition}-r${rho}%-w${hW}.vec"
output-scalar-file = "${resultdir}/${runnumber}-${repetition}-r${rho}%-w${hW}.sca"

**.delays_file= "D:\\Programming\\Datasets\\NetLatency-Data\\PlanetLab\\PlanetLabData_${datasetNum=18}"
**.location_index=0

sim-time-limit = 2400s
warmup-period = 2250s
**.warmup=2250s

seed-set = ${repetition}

**.n_sources=${nReqs=100}#1..10 step 1, 20..100 step 10}
**.n_sinks=nReqs

**.n_fifos=${nSP=8}

**.ratioRHM = ${rHM=0.5}#, 1}#0,0.5,1}
**.ratioSR = 0

*.fifos[*].serviceTime=1s/${mu=160}
*.malSPs[*].serviceTime=1s/${mu}
*.malSPs[*].malicious=true

*.malSources[*].idx_offset = int(${nReqs} * ${rHM})

**.t4ctful=${t4ct=false, false, true}
**.kErr=${kErr=0, 0.00001*$nReqs, 0.00001*$nReqs ! t4ct} #0,0.00001*$nReqs
**.kD=${kD=0, 0.1, 0.1 ! kErr} #0,0.1

**.windowSize = 100#${ws=100}
**.dropSens = 0.3#${ds=0.3}

**.dropWaittime = 0s
**.minHonWaitDelay = 0ms#${hD=0ms}#, 200ms, 225ms, 250ms}#0ms,10ms,50ms,80ms,85.227ms,90ms,110ms,130ms,135.16ms,140ms, 160ms, 170ms,178.13ms,190ms,300ms}
**.hThroughput=0#${hT=0,0.25,0.5}#${hT=0,0.2,0.4,0.5,0.6,0.8,1}

#**.updateRatiosCount=1
**.x1=0.1
**.cluster_thresh=30ms
**.cluster_attrition=0.1

**.deltaNet=true#${dN=}
**.hon_wait_out = ${hW=50ms}#, 6.25ms, 12.5ms, 25ms, 50ms, 100ms}

**.naiveH=0
**.naiveM = 0

*.sources[*].sinkVectorName = "sinks"
*.malSources[*].sinkVectorName = "malSinks"

**.outputPathPrefix = "E:/wt"

[TwoSpeedService]
network = TwoSpeedService
repeat = 100

**.kReqs=${k=1}#k=1,2,4
**.rho=${rho=25}#1,5,25,50,80} #25,50,80,90,95,100

**.sources[*].interarrivalMeanTime = ${iat=$nReqs s/($mu*$nSP*($rho/100))}
**.malSources[*].interarrivalMeanTime = ${iat}

**.req_type = ${rt="LOolSource"}
**.ratioSHM = ${sHM=0.875,0.75,0.625,0.5,0.375,0.25,0.125,0}
**.net_delays = Vector{val:[135.16, 85.227, 178.13, 105.227, 162.867, 105.11, 85.227, 144.04]}

**.runPath = '${runnumber}-${repetition}-r${rho}%-w${hW}'

[TwoSpeedServiceAtlas]
network = TwoSpeedServiceAtlas
repeat = 10

**.delays_file= "D:\\Programming\\Datasets\\cloud-edge-latency\\cloud-IBM-"

**.kReqs=${k=1}#k=1,2,4
**.rho=${rho=25}#1,5,25,50,80} #25,50,80,90,95,100

**.sources[*].interarrivalMeanTime = ${iat=$nReqs s/($mu*$nSP*($rho/100))}
**.malSources[*].interarrivalMeanTime = ${iat}

**.req_type = ${rt="LOolSource"}
**.ratioSHM = ${sHM=0.875,0.75,0.625,0.5,0.375,0.25,0.125,0}
**.net_delays = Vector{val:[135.16, 85.227, 178.13, 105.227, 162.867, 105.11, 85.227, 144.04]}

**.hon_rq_count_per_zone = IntVector{val:[10,10,10,10,10]}
**.mal_rq_count_per_zone = IntVector{val:[10,10,10,10,10]}#[1,1,1,1,1]
**.hon_prov_ids = ${IntVector{val:[0,0,1,1,2,2,3,3,4,4,5,6,6,7,7,8,8,9,9,10,10,11,11,12,13,14,14,14,15,15,16,16,17,17,18,18,19,20,20,20,21,21]},\
	IntVector{val:[0,0,1,1,2,2,3,4,5,6,6,7,7,8,8,9,9,10,10,11,12,13,14,14,15,15,16,16,17,17,18,19,20,20,21,21]},\
	IntVector{val:[0,0,1,2,3,4,5,6,6,7,7,8,8,9,10,11,12,13,14,14,15,15,16,17,18,19,20,20,21,21]},\
	IntVector{val:[0,1,2,3,4,5,6,7,8,9,10,11,12,13,14,14,15,17,18,19,20,20,21,21]},\
	IntVector{val:[3,4,5,7,8,9,10,11,12,13,14,14,17,18,19,20,21,21]},\
	IntVector{val:[4,5,7,10,11,12,13,14,18,19,20,21]},\
	IntVector{val:[5,12,13,14,19,21]},\
	IntVector{val:[]} ! sHM}
**.mal_prov_ids = ${IntVector{val:[5,12,13,14,19,21]},\
	IntVector{val:[3,4,5,11,12,13,14,14,18,19,20,21]},\
	IntVector{val:[1,2,3,4,5,9,10,11,12,13,14,14,16,17,18,19,20,21]},\
	IntVector{val:[0,1,2,3,4,5,6,7,8,9,10,11,12,13,14,14,15,16,16,17,18,19,20,21]},\
	IntVector{val:[0,0,1,1,2,2,3,4,5,6,6,7,8,9,10,11,12,13,14,14,15,15,16,16,17,18,19,20,20,21]},\
	IntVector{val:[0,0,1,1,2,2,3,3,4,5,6,6,7,8,8,9,9,10,11,12,13,14,14,14,15,15,16,16,17,17,18,19,20,20,21,21]},\
	IntVector{val:[0,0,1,1,2,2,3,3,4,4,5,6,6,7,7,8,8,9,9,10,10,11,11,12,13,14,14,14,15,15,16,16,17,17,18,18,19,20,20,20,21,21]},\
	IntVector{val:[0,0,1,1,2,2,3,3,4,4,5,5,6,6,7,7,8,8,9,9,10,10,11,11,12,12,13,13,14,14,14,14,15,15,16,16,17,17,18,18,19,19,20,20,20,21,21,21]} ! sHM}

**.runPath = '${runnumber}-${repetition}-r${rho}%-w${hW}'

[TwoSpeedServiceNoLat]
network = TwoSpeedServiceNoLat
repeat = 10

**.sources[0..49].kReqs=${k=1}#k=1,2,4
**.sources[50..].kReqs=1

**.rho=${rho=75 ! k}#1,5,25,50,80} #25,50,80,90,95,100

**.sources[0..49].interarrivalMeanTime = ${iat=100 s/960}
**.sources[50..].interarrivalMeanTime = ${100 s/960}

**.req_type = ${rt="LOolSource"}
**.ratioSHM = ${sHM=0.875,0.75,0.625,0.5,0.375,0.25,0.125,0}
#**.ratioSHM = ${sHM=0,1/10,2/10,3/10,4/10,5/10,6/10,7/10,8/10,9/10}
#**.ratioSHM = ${sHM=0,1/12,2/12,3/12,4/12,5/12,6/12,7/12,8/12,9/12,10/12,11/12}
**.net_delays = Vector{val:[0,0,0,0,0,0,0,0,0,0,0,0]}

**.runPath = '${runnumber}-${repetition}-r${rho}%-w${hW}'

[TwoSpeedServiceNoLatCuckooTiming]
network = TwoSpeedServiceNoLatCuckoo
repeat = 10

**.kReqs=${k=1}#k=1,2,4
**.rho=${rho=75 ! k}#1,5,25,50,80} #25,50,80,90,95,100
**.interarrivalMeanTime = ${iat=$nReqs s/($mu*$nSP*($rho/100))}
**.reqThroughput=${nSP}*${mu}*${rho}/(100*${nReqs})
**.cuckooLoad=${mu}*${cRho=98}/100
**.mu=${mu}

**.req_type = ${rt="LOolSource"}
**.ratioSHM = ${sHM=0,0.125,0.25,0.375,0.5,0.625,0.75,0.875}
#**.ratioSHM = ${sHM=0,1/10,2/10,3/10,4/10,5/10,6/10,7/10,8/10,9/10}
#**.ratioSHM = ${sHM=0,1/12,2/12,3/12,4/12,5/12,6/12,7/12,8/12,9/12,10/12,11/12}
**.net_delays = Vector{val:[0,0,0,0,0,0,0,0,0,0,0,0]}
**.sinks[50..].hardcodedRatios=true

**.sinks[50..].hardcodedRatiosVec=${Vector{val:[0.125,0.125,0.125,0.125,0.125, 0.125,0.125,0.125]},\	
	Vector{val:[146/480, 334/3360, 334/3360,334/3360,334/3360,334/3360,334/3360,334/3360]},\
	Vector{val:[292/960, 292/960, 376/5760,376/5760,376/5760,376/5760,376/5760,376/5760]},\
	Vector{val:[438/1440, 438/1440, 438/1440, 126/7200,126/7200,126/7200,126/7200,126/7200]},\
	Vector{val:[1/4, 1/4, 1/4, 1/4, 0,0,0,0]},\
	Vector{val:[1/5, 1/5, 1/5, 1/5,1/5, 0,0,0]},\
	Vector{val:[1/6, 1/6, 1/6, 1/6,1/6, 1/6,0,0]},\
	Vector{val:[1/7,1/7,1/7,1/7,1/7,1/7,1/7,0]} ! sHM}

#**.sinks[50..].hardcodedRatiosVec=${Vector{val:[1/10, 1/10, 1/10, 1/10, 1/10, 1/10, 1/10, 1/10, 1/10, 1/10]},\
#   Vector{val:[1472/4800, 3328/43200, 3328/43200, 3328/43200, 3328/43200, 3328/43200, 3328/43200, 3328/43200, 3328/43200, 3328/43200]},\
#   Vector{val:[1472/4800, 1472/4800, 1856/38400, 1856/38400, 1856/38400, 1856/38400, 1856/38400, 1856/38400, 1856/38400, 1856/38400]},\
#   Vector{val:[1472/4800, 1472/4800, 1472/4800, 384/33600, 384/33600, 384/33600, 384/33600, 384/33600, 384/33600, 384/33600]},\
#   Vector{val:[1/4, 1/4, 1/4, 1/4, 0, 0, 0, 0, 0, 0]},\
#   Vector{val:[1/5, 1/5, 1/5, 1/5, 1/5, 0, 0, 0, 0, 0]},\
#   Vector{val:[1/6, 1/6, 1/6, 1/6, 1/6, 1/6, 0, 0, 0, 0]},\
#   Vector{val:[1/7, 1/7, 1/7, 1/7, 1/7, 1/7, 1/7, 0, 0, 0]},\
#   Vector{val:[1/8, 1/8, 1/8, 1/8, 1/8, 1/8, 1/8, 1/8, 0, 0]},\
#   Vector{val:[1/9, 1/9, 1/9, 1/9, 1/9, 1/9, 1/9, 1/9, 1/9, 0]} ! sHM}

#**.sinks[50..].hardcodedRatiosVec=${Vector{val:[1/12, 1/12, 1/12, 1/12, 1/12, 1/12, 1/12, 1/12, 1/12, 1/12, 1/12, 1/12]},\
#   Vector{val:[9250/30000, 332/5280, 332/5280, 332/5280, 332/5280, 332/5280, 332/5280, 332/5280, 332/5280, 332/5280, 332/5280, 332/5280]},\
#   Vector{val:[9250/30000, 9250/30000, 1150/30000, 1150/30000, 1150/30000, 1150/30000, 1150/30000, 1150/30000, 1150/30000, 1150/30000, 1150/30000, 1150/30000]},\
#   Vector{val:[9250/30000, 9250/30000, 9250/30000, 250/30000, 250/30000, 250/30000, 250/30000, 250/30000, 250/30000, 250/30000, 250/30000, 250/30000]},\
#   Vector{val:[1/4, 1/4, 1/4, 1/4, 0, 0, 0, 0, 0, 0, 0, 0]},\
#   Vector{val:[1/5, 1/5, 1/5, 1/5, 1/5, 0, 0, 0, 0, 0, 0, 0]},\
#   Vector{val:[1/6, 1/6, 1/6, 1/6, 1/6, 1/6, 0, 0, 0, 0, 0, 0]},\
#   Vector{val:[1/7, 1/7, 1/7, 1/7, 1/7, 1/7, 1/7, 0, 0, 0, 0, 0]},\
#   Vector{val:[1/8, 1/8, 1/8, 1/8, 1/8, 1/8, 1/8, 1/8, 0, 0, 0, 0]},\
#   Vector{val:[1/9, 1/9, 1/9, 1/9, 1/9, 1/9, 1/9, 1/9, 1/9, 0, 0, 0]},\
#   Vector{val:[1/10, 1/10, 1/10, 1/10, 1/10, 1/10, 1/10, 1/10, 1/10, 1/10, 0, 0]},\
#   Vector{val:[1/11, 1/11, 1/11, 1/11, 1/11, 1/11, 1/11, 1/11, 1/11, 1/11, 1/11, 0]} ! sHM}
#**.sinks[50..].updateRatiosCount=0

**.runPath = '${runnumber}-${repetition}-r${rho}%-w${hW}'

[TwoSpeedServiceNoLatCuckooContent]
network = TwoSpeedServiceNoLatCuckoo
repeat = 100

**.kReqs=${k=1}#k=1,2,4
**.rho=${rho=75 ! k}#1,5,25,50,80} #25,50,80,90,95,100
**.interarrivalMeanTime = ${iat=$nReqs s/($mu*$nSP*($rho/100))}

**.reqThroughput=${nSP}*${mu}*${rho}/(100*${nReqs})
**.cuckooLoad=${mu}*${rho}/100
**.mu=${mu}

**.req_type = ${rt="LOolSource"}
**.ratioSHM = ${sHM=0,0.125,0.25,0.375,0.5,0.625,0.75,0.875}
#**.ratioSHM = ${sHM=0,1/10,2/10,3/10,4/10,5/10,6/10,7/10,8/10,9/10}
#**.ratioSHM = ${sHM=0,1/12,2/12,3/12,4/12,5/12,6/12,7/12,8/12,9/12,10/12,11/12}
**.net_delays = Vector{val:[0,0,0,0,0,0,0,0,0,0,0,0]}
**.sinks[50..].hardcodedRatios=true

**.sinks[50..].hardcodedRatiosVec=${Vector{val:[0.125,0.125,0.125,0.125,0.125, 0.125,0.125,0.125]},\	
	Vector{val:[114/480, 366/3360, 366/3360, 366/3360,366/3360,366/3360,366/3360,366/3360]},\
	Vector{val:[114/480, 114/480, 7/80, 7/80, 7/80, 7/80, 7/80, 7/80]},\
	Vector{val:[114/480, 114/480, 114/480, 23/400, 23/400, 23/400, 23/400, 23/400]},\
	Vector{val:[114/480,114/480, 114/480, 114/480, 1/80,1/80,1/80,1/80]},\
	Vector{val:[1/5, 1/5, 1/5, 1/5,1/5, 0,0,0]},\
	Vector{val:[1/6, 1/6, 1/6, 1/6,1/6, 1/6,0,0]},\
	Vector{val:[1/7,1/7,1/7,1/7,1/7,1/7,1/7,0]} ! sHM}

#**.sinks[50..].hardcodedRatiosVec=${Vector{val:[1/10, 1/10, 1/10, 1/10, 1/10, 1/10, 1/10, 1/10, 1/10, 1/10]},\
#   Vector{val:[19/100, 9/100, 9/100, 9/100, 9/100, 9/100, 9/100, 9/100, 9/100, 9/100]},\
#   Vector{val:[19/100, 19/100, 31/400, 31/400, 31/400, 31/400, 31/400, 31/400, 31/400, 31/400]},\
#   Vector{val:[19/100, 19/100, 19/100, 2064/33600, 2064/33600, 2064/33600, 2064/33600, 2064/33600, 2064/33600, 2064/33600]},\
#   Vector{val:[19/100, 19/100, 19/100, 19/100, 1/25, 1/25, 1/25, 1/25, 1/25, 1/25]},\
#   Vector{val:[19/100, 19/100, 19/100, 19/100, 19/100, 1/100, 1/100, 1/100, 1/100, 1/100]},\
#   Vector{val:[1/6, 1/6, 1/6, 1/6, 1/6, 1/6, 0, 0, 0, 0]},\
#   Vector{val:[1/7, 1/7, 1/7, 1/7, 1/7, 1/7, 1/7, 0, 0, 0]},\
#   Vector{val:[1/8, 1/8, 1/8, 1/8, 1/8, 1/8, 1/8, 1/8, 0, 0]},\
#   Vector{val:[1/9, 1/9, 1/9, 1/9, 1/9, 1/9, 1/9, 1/9, 1/9, 0]} ! sHM}

#**.sinks[50..].hardcodedRatiosVec=${Vector{val:[1/12, 1/12, 1/12, 1/12, 1/12, 1/12, 1/12, 1/12, 1/12, 1/12, 1/12, 1/12]},\
#   Vector{val:[4750/30000, 404/5280, 404/5280, 404/5280, 404/5280, 404/5280, 404/5280, 404/5280, 404/5280, 404/5280, 404/5280, 404/5280]},\
#   Vector{val:[4750/30000, 4750/30000, 2050/30000, 2050/30000, 2050/30000, 2050/30000, 2050/30000, 2050/30000, 2050/30000, 2050/30000, 2050/30000, 2050/30000]},\
#   Vector{val:[4750/30000, 4750/30000, 4750/30000, 1750/30000, 1750/30000, 1750/30000, 1750/30000, 1750/30000, 1750/30000, 1750/30000, 1750/30000, 1750/30000]},\
#   Vector{val:[4750/30000, 4750/30000, 4750/30000, 4750/30000, 13750/300000, 13750/300000, 13750/300000, 13750/300000, 13750/300000, 13750/300000, 13750/300000, 13750/300000]},\
#   Vector{val:[4750/30000, 4750/30000, 4750/30000, 4750/30000, 4750/30000, 100/3360, 100/3360, 100/3360, 100/3360, 100/3360, 100/3360, 100/3360]},\
#   Vector{val:[4750/30000, 4750/30000, 4750/30000, 4750/30000, 4750/30000, 4750/30000, 250/30000, 250/30000, 250/30000, 250/30000, 250/30000, 250/30000]},\
#   Vector{val:[1/7, 1/7, 1/7, 1/7, 1/7, 1/7, 1/7, 0, 0, 0, 0, 0]},\
#   Vector{val:[1/8, 1/8, 1/8, 1/8, 1/8, 1/8, 1/8, 1/8, 0, 0, 0, 0]},\
#   Vector{val:[1/9, 1/9, 1/9, 1/9, 1/9, 1/9, 1/9, 1/9, 1/9, 0, 0, 0]},\
#   Vector{val:[1/10, 1/10, 1/10, 1/10, 1/10, 1/10, 1/10, 1/10, 1/10, 1/10, 0, 0]},\
#   Vector{val:[1/11, 1/11, 1/11, 1/11, 1/11, 1/11, 1/11, 1/11, 1/11, 1/11, 1/11, 0]} ! sHM}
#**.sinks[50..].updateRatiosCount=0

**.runPath = '${runnumber}-${repetition}-r${rho}%-w${hW}'

[TwoSpeedServiceNoLatPoT]
network = TwoSpeedServiceNoLatPoT
repeat = 100

**.kReqs=${k=2}#k=1,2,4
**.rho=${rho=75}#1,5,25,50,80} #25,50,80,90,95,100

*.malSPs[*].queue_attack = ${qAtt=false,true}

**.sources[*].interarrivalMeanTime = ${iat=$nReqs s/($mu*$nSP*($rho/100))}
**.malSources[*].interarrivalMeanTime = ${iat}

**.req_type = ${rt="PoTSource"}
**.ratioSHM = ${sHM=0,0.125,0.25,0.375,0.5,0.625,0.75,0.875}
**.net_delays = Vector{val:[0,0,0,0,0,0,0,0]}

**.runPath = '${runnumber}-${repetition}-r${rho}%-w${hW}'